# *******************
# ECCO cost functions
# *******************
 &ECCO_COST_NML
 &
# ***************************
# ECCO generic cost functions
# ***************************
 &ECCO_GENCOST_NML
 gencost_name(1) = 'subd_samw_release1996',
 gencost_barfile(1) = 'm_boxmean_theta',
 gencost_avgperiod(1) = 'month',
 gencost_itracer(1) = 1,
 gencost_msk_is3d(1)=.TRUE.,
 gencost_outputlevel(1) = 1,
 gencost_mask(1) = 'subd_release1996_justPac_SAMW_mask',
 mult_gencost(1) = 1.0D9,
#
 &
# 
