# Packages
 &PACKAGES
 useEXF             = .TRUE.,
 useGMRedi          = .TRUE.,
 useSeaice          = .TRUE.,
 useGGL90           = .TRUE.,
 useSALT_PlUME      = .TRUE.,
 useDiagnostics     = .FALSE.,
 usePTRACERS        = .FALSE.,
 useAUTODIFF        = .TRUE.,
 useECCO            = .TRUE.,
 useCTRL            = .TRUE.,
 useProfiles        = .FALSE.,
 useSMOOTH          = .TRUE.,
 &
